*KEYWORD
*TITLE
ATD verification cube
$ Generated by ATD 1.0.2; source units are preserved without scaling.
*CONTROL_TERMINATION
0.01,0,0,0,0
*CONTROL_TIMESTEP
0,0.67,0,0,0,0,0,0
*DATABASE_BINARY_D3PLOT
0.0005
*DATABASE_GLSTAT
0.0005
*DATABASE_MATSUM
0.0005
*DEFINE_CURVE_TITLE
STEEL plasticity
1,0,1,1,0,0,0,0
0,250
0.05,300
0.15,350
*DEFINE_CURVE_TITLE
LOADED load DOF 3
2,0,1,1,0,0,0,0
0,0
0.01,1
*DEFINE_CURVE_TITLE
TOP_SURF pressure
3,0,1,1,0,0,0,0
0,0
0.01,1
*MAT_PIECEWISE_LINEAR_PLASTICITY_TITLE
STEEL
1,7.85e-09,210000,0.3,250,0,0,0
0,0,1,0,0,0,0,0
*MAT_ADD_EROSION
$ Abaqus DUCTILE initiation reduced to an effective-strain erosion threshold.
1,0,0,0,0.25,0,1,1
0,0,0,0,0,0,0,0
*SECTION_SOLID_TITLE
BLOCK / BLOCK-1 / EALL / C3D8R
1,1,0
*PART
BLOCK / BLOCK-1 / EALL / C3D8R
1,1,1,0,0,0,0,0
*NODE
1,10,0,0,0,0
2,11,0,0,0,0
3,11,1,0,0,0
4,10,1,0,0,0
5,10,0,1,0,0
6,11,0,1,0,0
7,11,1,1,0,0
8,10,1,1,0,0
*ELEMENT_SOLID
1,1,1,2,3,4,5,6,7,8
*SET_NODE_LIST_TITLE
BLOCK-1.BOTTOM
1,0,0,0,0
1,2,3,4
*SET_NODE_LIST_TITLE
BLOCK-1.TOP
2,0,0,0,0
5,6,7,8
*SET_NODE_LIST_TITLE
BOTTOM
3,0,0,0,0
1,2,3,4
*SET_NODE_LIST_TITLE
TOP
4,0,0,0,0
5,6,7,8
*SET_NODE_LIST_TITLE
FIXED
5,0,0,0,0
1,2,3,4
*SET_NODE_LIST_TITLE
LOADED
6,0,0,0,0
5,6,7,8
*SET_SEGMENT_TITLE
TOP_SURF
1,0,0,0,0
5,8,7,6
*SET_PART_LIST_TITLE
@INSTANCE.BLOCK-1
1,0,0,0,0
1
*SET_PART_LIST_TITLE
@PART.BLOCK
2,0,0,0,0
1
*CONTACT_AUTOMATIC_SINGLE_SURFACE_TITLE
Abaqus general contact - all exterior
0,0,0,0,0,0,0,0
0.2,0.2,0,0,0,0,0,1e+20
0,0,0,0,0,0,0,0
2,0,0,0,0,0,0,1
*BOUNDARY_SPC_SET
5,0,1,1,1,1,1,1
*LOAD_NODE_SET
6,3,2,-100,0,0,0,0
*LOAD_SEGMENT_SET
1,3,5,0
*END
